*SPEF "1481-1998"
*DESIGN "ex"
*DATE "Sat May  5 16:41:30 2018"
*VENDOR "Synopsys, Inc."
*PROGRAM "icc_shell"
*VERSION "H-2013.03-ICC"
*DESIGN_FLOW "PIN_CAP NONE"
*DIVIDER /
*DELIMITER :
*BUS_DELIMITER [ ]
*T_UNIT 1 NS
*C_UNIT 1 FF
*R_UNIT 1 OHM
*L_UNIT 1 HENRY

*NAME_MAP
*1 A
*2 clk
*3 Y
*4 w1
*5 FF1
*6 w2
*7 w3
*8 BUFF1
*9 N1
*10 N2
*11 INV1
*12 FF2
*13 N3
*14 Y

*PORTS
*1 I *L 0.0 *S 0.0 0.0
*2 I *L 0.0 *S 0.0 0.0
*3 O *L 0.0 *S 0.0 0.0


*D_NET *1 0.6597695

*CONN
*I *5:d I *L 442.152 *C 6.84 2.736
*P *1 I *C 5.168 8.332
*N *1:2 *C 5.168 2.736


*CAP
1 *5:d 0.5
2 *1 0.5
3 *1:2 0.5


*RES
1 *1 *1:2 10
2 *1:2 *5:d 10

*END

*D_NET *2 0.3740347

*CONN
*I *5:ck I *L 442.152 *C 6.84 2.736
*I *8:a I *L 442.152 *C 6.84 2.736
*P *2 I *C 5.168 8.332
*N *2:2 *C 5.168 2.736

*CAP
1 *5:ck 0.5
1 *8:a 0.5
2 *2 0.5
3 *2:2 0.5


*RES
1 *2 *2:2 10
2 *2:2 *5:ck 10
2 *2:2 *8:a 10

*END


*D_NET *9 0.4615538

*CONN
*I *5:q O *L 442.152 *C 6.84 2.736
*I *11:a I *C 5.168 8.332

*CAP
1 *5:q 0.5
2 *11:a 0.5
3 *9:2 0.5


*RES
1 *5:q *9:2 10
2 *9:2 *11:a 10

*END

*D_NET *10 0.6876817

*CONN
*I *11:o O *L 442.152 *C 6.84 2.736
*I *12:d I *C 5.168 8.332

*CAP
1 *11:o 0.5
2 *12:d 0.5
3 *10:2 0.5

*RES
1 *11:o *10:2 10
2 *10:2 *12:d 10

*END

*D_NET *13 0.4258971

*CONN
*I *8:o O *L 442.152 *C 6.84 2.736
*I *12:ck I *C 5.168 8.332

*CAP
1 *8:o 0.5
2 *12:ck 0.50.5
3 *13:2 0.5

*RES
1 *8:o *13:2 10
2 *13:2 *12:ck 10

*END


*D_NET *14 0.4258971

*CONN
*I *12:q O *L 442.152 *C 6.84 2.736
*P *3 O *C 5.168 8.332

*CAP
1 *12:q 0.5
2 *3 0.5
3 *14:2 0.5

*RES
1 *12:q *14:2 10
2 *14:2 *3 10

*END
