*SPEF "1481-1998"
*DESIGN "top"
*DATE "Wed Oct  2 16:29:17 2002"
*VENDOR "Synopsys, Inc."
*PROGRAM "PrimeTime"
*VERSION "U-2003.03-preAlpha"
*DESIGN_FLOW "Synopsys"
*DIVIDER /
*DELIMITER :
*BUS_DELIMITER [ ]
*T_UNIT 1 NS
*C_UNIT 1 FF
*R_UNIT 1 OHM
*L_UNIT 1 HENRY

*NAME_MAP
*1 i1
*2 i2
*3 o1
*4 o2
*5 clk
*6 u1
*7 u2
*8 blockA
*9 blockB
*10 blockA/u1
*11 blockA/u2
*12 blockA/u3
*13 blockA/ff1
*14 blockA/ff2
*15 blockA/u4
*16 blockA/u5
*17 blockA/u6
*18 blockA/u7
*19 blockA/u8
*20 blockA/u9
*21 blockB/u1
*22 blockB/u2
*23 blockB/u3
*24 blockB/ff1
*25 blockB/ff2
*26 blockB/u4
*27 blockB/u5
*28 blockB/u6
*29 blockB/u7
*30 blockB/u8
*31 blockB/u9
*32 blockA/n1
*33 blockA/n2
*34 blockA/n3
*35 blockA/n4
*36 blockA/n10
*37 blockA/n11
*38 blockA/n12
*39 blockA/n7
*40 blockA/n6
*41 blockA/n5
*42 blockB/n1
*43 blockB/n2
*44 blockB/n3
*45 blockB/n4
*46 blockB/n10
*47 blockB/n11
*48 blockB/n12
*49 blockB/n7
*50 blockB/n6
*51 blockB/n5

*PORTS
*1 I *L 0.000000 *S 0.0 0.0
*2 I *L 1.000000 *S 0.0 0.0
*3 O *L 0.500000 *S 0.0 0.0
*4 O *L 1.500000 *S 0.0 0.0
*5 I *L 0.000000 *S 0.0 0.0

*D_NET *32 6683.186523

*CONN
*I *10:Z O *L 0.000000 *D BF1T4_D
*I *12:A I *L 7.140000
*I *11:A I *L 9.380000

*CAP
1 *10:Z 9.52380981
2 *32:2 9.52380981
3 *32:3 9.52380981
4 *12:A 9.52380981
5 *32:5 9.52380981
6 *11:A 9.52380981
7 *32:7 9.52380981

*RES
1 *10:Z *32:2 500.000000
2 *32:2 *32:3 500.000000
3 *32:5 *12:A 500.000000
4 *32:3 *32:5 500.000000
5 *32:7 *11:A 500.000000
6 *32:3 *32:7 500.000000

*END

*D_NET *33 5012.000000

*CONN
*I *11:Z O *L 0.000000 *D BF1T4_D
*I *13:CP I *L 12.000000

*CAP
1 *11:Z 10.00000000
2 *33:2 10.00000000
3 *33:3 10.00000000
4 *13:CP 10.00000000
5 *33:5 10.00000000

*RES
1 *11:Z *33:2 500.000000
2 *33:2 *33:3 500.000000
3 *33:5 *13:CP 500.000000
4 *33:3 *33:5 500.000000

*END

*D_NET *34 5012.010254

*CONN
*I *12:Z O *L 0.000000 *D IVX05_D
*I *14:CP I *L 12.009999

*CAP
1 *12:Z 10.00000000
2 *34:2 10.00000000
3 *34:3 10.00000000
4 *14:CP 10.00000000
5 *34:5 10.00000000

*RES
1 *12:Z *34:2 500.000000
2 *34:2 *34:3 500.000000
3 *34:5 *14:CP 500.000000
4 *34:3 *34:5 500.000000

*END

*D_NET *35 5010.330078

*CONN
*I *15:Z O *L 0.000000 *D BF1T4_D
*I *16:C I *L 10.330000

*CAP
1 *15:Z 10.00000000
2 *35:2 10.00000000
3 *35:3 10.00000000
4 *16:C 10.00000000
5 *35:5 10.00000000

*RES
1 *15:Z *35:2 500.000000
2 *35:2 *35:3 500.000000
3 *35:5 *16:C 500.000000
4 *35:3 *35:5 500.000000

*END

*D_NET *36 5009.379883

*CONN
*I *17:Z O *L 0.000000 *D BF1T4_D
*I *18:A I *L 9.380000

*CAP
1 *17:Z 10.00000000
2 *36:2 10.00000000
3 *36:3 10.00000000
4 *18:A 10.00000000
5 *36:5 10.00000000

*RES
1 *17:Z *36:2 500.000000
2 *36:2 *36:3 500.000000
3 *36:5 *18:A 500.000000
4 *36:3 *36:5 500.000000

*END

*D_NET *37 5009.379883

*CONN
*I *18:Z O *L 0.000000 *D BF1T4_D
*I *19:A I *L 9.380000

*CAP
1 *18:Z 10.00000000
2 *37:2 10.00000000
3 *37:3 10.00000000
4 *19:A 10.00000000
5 *37:5 10.00000000

*RES
1 *18:Z *37:2 500.000000
2 *37:2 *37:3 500.000000
3 *37:5 *19:A 500.000000
4 *37:3 *37:5 500.000000

*END

*D_NET *38 5009.379883

*CONN
*I *19:Z O *L 0.000000 *D BF1T4_D
*I *20:A I *L 9.380000

*CAP
1 *19:Z 10.00000000
2 *38:2 10.00000000
3 *38:3 10.00000000
4 *20:A 10.00000000
5 *38:5 10.00000000

*RES
1 *19:Z *38:2 500.000000
2 *38:2 *38:3 500.000000
3 *38:5 *20:A 500.000000
4 *38:3 *38:5 500.000000

*END

*D_NET *39 6489.369629

*CONN
*I *20:Z O *L 0.000000 *D BF1T4_D
*I *14:D I *L 10.630000

*CAP
1 *20:Z 10.00000000
2 *39:2 10.00000000
3 *39:3 25.00000000
4 *14:D 9.78739990
5 *39:5 10.00000000
6 *39:3 *40:2 15.00000000

*RES
1 *20:Z *39:2 500.000000
2 *39:2 *39:3 500.000000
3 *39:5 *14:D 500.000000
4 *39:3 *39:5 500.000000

*END

*D_NET *40 6490.620117

*CONN
*I *13:Q O *L 0.000000 *D FD1P_D
*I *17:A I *L 9.380000

*CAP
1 *13:Q 10.00000000
2 *40:2 25.00000000
3 *40:3 10.00000000
4 *17:A 9.81239990
5 *40:5 10.00000000
6 *40:2 *39:3 15.00000000

*RES
1 *13:Q *40:2 500.000000
2 *40:2 *40:3 500.000000
3 *40:5 *17:A 500.000000
4 *40:3 *40:5 500.000000

*END

*D_NET *41 5010.810059

*CONN
*I *16:Z O *L 0.000000 *D OR3_D
*I *13:D I *L 10.809999

*CAP
1 *16:Z 10.00000000
2 *41:2 10.00000000
3 *41:3 10.00000000
4 *13:D 10.00000000
5 *41:5 10.00000000
6 *41:2 *47:3 6.00000000

*RES
1 *16:Z *41:2 500.000000
2 *41:2 *41:3 500.000000
3 *41:5 *13:D 500.000000
4 *41:3 *41:5 500.000000

*END

*D_NET *42 6683.186523

*CONN
*I *21:Z O *L 0.000000 *D BF1T4_D
*I *23:A I *L 7.140000
*I *22:A I *L 9.380000

*CAP
1 *21:Z 9.52380981
2 *42:2 9.52380981
3 *42:3 9.52380981
4 *23:A 9.52380981
5 *42:5 9.52380981
6 *22:A 9.52380981
7 *42:7 9.52380981

*RES
1 *21:Z *42:2 500.000000
2 *42:2 *42:3 500.000000
3 *42:5 *23:A 500.000000
4 *42:3 *42:5 500.000000
5 *42:7 *22:A 500.000000
6 *42:3 *42:7 500.000000

*END

*D_NET *43 5012.000000

*CONN
*I *22:Z O *L 0.000000 *D BF1T4_D
*I *24:CP I *L 12.000000

*CAP
1 *22:Z 10.00000000
2 *43:2 10.00000000
3 *43:3 10.00000000
4 *24:CP 10.00000000
5 *43:5 10.00000000

*RES
1 *22:Z *43:2 500.000000
2 *43:2 *43:3 500.000000
3 *43:5 *24:CP 500.000000
4 *43:3 *43:5 500.000000

*END

*D_NET *44 5012.010254

*CONN
*I *23:Z O *L 0.000000 *D IVX05_D
*I *25:CP I *L 12.009999

*CAP
1 *23:Z 10.00000000
2 *44:2 10.00000000
3 *44:3 10.00000000
4 *25:CP 10.00000000
5 *44:5 10.00000000

*RES
1 *23:Z *44:2 500.000000
2 *44:2 *44:3 500.000000
3 *44:5 *25:CP 500.000000
4 *44:3 *44:5 500.000000

*END

*D_NET *45 5010.330078

*CONN
*I *26:Z O *L 0.000000 *D BF1T4_D
*I *27:C I *L 10.330000

*CAP
1 *26:Z 10.00000000
2 *45:2 10.00000000
3 *45:3 10.00000000
4 *27:C 10.00000000
5 *45:5 10.00000000

*RES
1 *26:Z *45:2 500.000000
2 *45:2 *45:3 500.000000
3 *45:5 *27:C 500.000000
4 *45:3 *45:5 500.000000

*END

*D_NET *46 5009.379883

*CONN
*I *28:Z O *L 0.000000 *D BF1T4_D
*I *29:A I *L 9.380000

*CAP
1 *28:Z 10.00000000
2 *46:2 10.00000000
3 *46:3 10.00000000
4 *29:A 10.00000000
5 *46:5 10.00000000

*RES
1 *28:Z *46:2 500.000000
2 *46:2 *46:3 500.000000
3 *46:5 *29:A 500.000000
4 *46:3 *46:5 500.000000

*END

*D_NET *47 5009.379883

*CONN
*I *29:Z O *L 0.000000 *D BF1T4_D
*I *30:A I *L 9.380000

*CAP
1 *29:Z 10.00000000
2 *47:2 10.00000000
3 *47:3 10.00000000
4 *30:A 10.00000000
5 *47:5 10.00000000
6 *47:3 *41:2 6.00000000

*RES
1 *29:Z *47:2 500.000000
2 *47:2 *47:3 500.000000
3 *47:5 *30:A 500.000000
4 *47:3 *47:5 500.000000

*END

*D_NET *48 5009.379883

*CONN
*I *30:Z O *L 0.000000 *D BF1T4_D
*I *31:A I *L 9.380000

*CAP
1 *30:Z 10.00000000
2 *48:2 10.00000000
3 *48:3 10.00000000
4 *31:A 10.00000000
5 *48:5 10.00000000

*RES
1 *30:Z *48:2 500.000000
2 *48:2 *48:3 500.000000
3 *48:5 *31:A 500.000000
4 *48:3 *48:5 500.000000

*END

*D_NET *49 6489.369629

*CONN
*I *31:Z O *L 0.000000 *D BF1T4_D
*I *25:D I *L 10.630000

*CAP
1 *31:Z 10.00000000
2 *49:2 10.00000000
3 *49:3 25.00000000
4 *25:D 9.78739990
5 *49:5 10.00000000
6 *49:3 *50:2 15.00000000

*RES
1 *31:Z *49:2 500.000000
2 *49:2 *49:3 500.000000
3 *49:5 *25:D 500.000000
4 *49:3 *49:5 500.000000

*END

*D_NET *50 6490.620117

*CONN
*I *24:Q O *L 0.000000 *D FD1P_D
*I *28:A I *L 9.380000

*CAP
1 *24:Q 10.00000000
2 *50:2 25.00000000
3 *50:3 10.00000000
4 *28:A 9.81239990
5 *50:5 10.00000000
6 *50:2 *49:3 15.00000000

*RES
1 *24:Q *50:2 500.000000
2 *50:2 *50:3 500.000000
3 *50:5 *28:A 500.000000
4 *50:3 *50:5 500.000000

*END

*D_NET *51 5010.810059

*CONN
*I *27:Z O *L 0.000000 *D OR3_D
*I *24:D I *L 10.809999

*CAP
1 *27:Z 10.00000000
2 *51:2 10.00000000
3 *51:3 10.00000000
4 *24:D 10.00000000
5 *51:5 10.00000000

*RES
1 *27:Z *51:2 500.000000
2 *51:2 *51:3 500.000000
3 *51:5 *24:D 500.000000
4 *51:3 *51:5 500.000000

*END

