*SPEF "1481-1998"
*DESIGN "mux_2x1"
*DATE "Sat May  5 16:41:30 2018"
*VENDOR "Synopsys, Inc."
*PROGRAM "icc_shell"
*VERSION "H-2013.03-ICC"
*DESIGN_FLOW "PIN_CAP NONE"
*DIVIDER /
*DELIMITER :
*BUS_DELIMITER [ ]
*T_UNIT 1 NS
*C_UNIT 1 FF
*R_UNIT 1 OHM
*L_UNIT 1 HENRY

*NAME_MAP
*1 Y
*2 clk
*3 sel
*4 B
*5 A
*6 U5
*7 N3
*8 Y_reg

*PORTS
*1 O *L 0.0 *S 0.0 0.0
*2 I *L 0.0 *S 0.0 0.0
*3 I *L 0.0 *S 0.0 0.0
*4 I *L 0.0 *S 0.0 0.0
*5 I *L 0.0 *S 0.0 0.0

*D_NET *5 0.6597695

*CONN
*I *6:A1 I *L 442.152 *C 6.84 2.736
*P *5 I *C 5.168 8.332
*N *5:3 *C 5.168 2.736
*N *5:4 *C 5.168 2.736
*N *5:5 *C 6.84 2.736
*N *5:6 *C 6.84 2.736

*CAP
1 *6:A1 0.01331971
2 *5 0.2431254
3 *5:3 0.0734396
4 *5:4 0.2431254
5 *5:5 0.0734396
6 *5:6 0.01331971

*RES
1 *5:4 *5:3 0.5
2 *5:5 *5:6 0.5
3 *5:6 *6:A1 1.0
4 *5 *5:4 10.04107
5 *5:3 *5:5 3.182143

*END

*D_NET *3 0.3740347

*CONN
*I *6:S0 I *L 1007.825 *C 7.448 2.584
*P *3 I *C 9.852 4.256
*N *3:3 *C 7.448 4.256
*N *3:4 *C 7.448 4.256
*N *3:5 *C 7.448 2.584

*CAP
1 *6:S0 0.0
2 *3 0.1000043
3 *3:3 0.1000043
4 *3:4 0.08701299
5 *3:5 0.08701299

*RES
1 *3:3 *3:4 0.5
2 *3:5 *6:S0 1.0
3 *3:4 *3:5 3.182143
4 *3 *3:3 4.341072

*END

*D_NET *7 0.8313839

*CONN
*I *6:Y O *L 0.0 *D MUX21X1_RVT *C 8.36 2.584
*I *8:D I *L 508.1253 *C 1.064 3.952
*N *7:3 *C 8.36 2.584
*N *7:4 *C 8.36 2.736
*N *7:5 *C 8.36 2.736
*N *7:6 *C 7.296 2.736
*N *7:7 *C 7.296 2.736
*N *7:8 *C 7.296 3.952
*N *7:9 *C 7.296 3.952
*N *7:10 *C 1.064 3.952
*N *7:11 *C 1.064 3.952

*CAP
1 *6:Y 0.0
2 *8:D 0.01358449
3 *7:3 0.01450972
4 *7:4 0.04940208
5 *7:5 0.01450972
6 *7:6 0.04940208
7 *7:7 0.06816024
8 *7:8 0.2700354
9 *7:9 0.06816024
10 *7:10 0.2700354
11 *7:11 0.01358449

*RES
1 *6:Y *7:3 1.0
8 *7:3 *7:5 0.4450001
2 *7:5 *7:4 0.5
10 *7:4 *7:6 2.096429
3 *7:6 *7:7 0.5
7 *7:7 *7:9 2.367857
4 *7:9 *7:8 0.5
9 *7:8 *7:10 11.325
5 *7:10 *7:11 0.5
6 *7:11 *8:D 1.0
*END

*D_NET *4 0.4615538

*CONN
*I *6:A2 I *L 433.9048 *C 7.904 2.28
*P *4 I *C 4.864 0.028
*N *4:3 *C 4.864 2.128
*N *4:4 *C 4.864 2.128
*N *4:5 *C 7.904 2.128
*N *4:6 *C 7.904 2.128
*N *4:7 *C 7.904 2.28

*CAP
1 *6:A2 0.0
2 *4 0.08901988
3 *4:3 0.1272532
4 *4:4 0.08901988
5 *4:5 0.1272532
6 *4:6 0.0145038
7 *4:7 0.0145038

*RES
1 *4:4 *4:3 0.5
2 *4:5 *4:6 0.5
3 *4:7 *6:A2 1.0
4 *4 *4:4 3.798215
5 *4:6 *4:7 0.445
6 *4:3 *4:5 5.625

*END

*D_NET *2 0.6876817

*CONN
*I *8:CLK I *L 629.3924 *C 1.368 4.864
*P *2 I *C 4.864 8.332
*N *2:3 *C 4.864 4.56
*N *2:4 *C 4.864 4.56
*N *2:5 *C 1.368 4.56
*N *2:6 *C 1.368 4.56
*N *2:7 *C 1.368 4.864

*CAP
1 *8:CLK 0.0
2 *2 0.1673366
3 *2:3 0.1557598
4 *2:4 0.1673366
5 *2:5 0.1557598
6 *2:6 0.02074454
7 *2:7 0.02074454

*RES
1 *2:4 *2:3 0.5
2 *2:5 *2:6 0.5
3 *2:7 *8:CLK 1.0
4 *2:6 *2:7 0.7392858
5 *2 *2:4 6.783929
6 *2:3 *2:5 6.439287

*END

*D_NET *1 0.4258971

*CONN
*I *8:Q O *L 0.0 *D DFFX1_RVT *C 4.408 4.408
*P *1 O *C 0.028 4.256
*N *1:3 *C 4.408 4.256
*N *1:4 *C 4.408 4.256
*N *1:5 *C 4.408 4.408

*CAP
1 *8:Q 0.0
2 *1 0.1984216
3 *1:3 0.1984216
4 *1:4 0.01452697
5 *1:5 0.01452697

*RES
1 *1:4 *1:3  0.5
2 *8:Q *1:5  1.0
3 *1:5 *1:4  0.4450001
4 *1:3 *1  7.869643

*END
